7519
  -OEChem-05112309193D

 16 16  0     0  0  0  0  0  0999 V2000
    1.8925   -0.6211    0.0000 O   0  0  0  0  0  0  0  0  0  0  0  0
    0.5699   -0.3011   -0.0003 C   0  0  0  0  0  0  0  0  0  0  0  0
    0.1759    1.0370   -0.0002 C   0  0  0  0  0  0  0  0  0  0  0  0
   -0.3918   -1.3114   -0.0001 C   0  0  0  0  0  0  0  0  0  0  0  0
   -1.1799    1.3647    0.0000 C   0  0  0  0  0  0  0  0  0  0  0  0
   -1.7476   -0.9836    0.0001 C   0  0  0  0  0  0  0  0  0  0  0  0
   -2.1417    0.3545    0.0002 C   0  0  0  0  0  0  0  0  0  0  0  0
    2.8227    0.4610    0.0003 C   0  0  0  0  0  0  0  0  0  0  0  0
    0.8695    1.8709   -0.0003 H   0  0  0  0  0  0  0  0  0  0  0  0
   -0.0910   -2.3555    0.0000 H   0  0  0  0  0  0  0  0  0  0  0  0
   -1.4879    2.4064    0.0001 H   0  0  0  0  0  0  0  0  0  0  0  0
   -2.4966   -1.7702    0.0003 H   0  0  0  0  0  0  0  0  0  0  0  0
   -3.1974    0.6096    0.0003 H   0  0  0  0  0  0  0  0  0  0  0  0
    2.7368    1.0652    0.9098 H   0  0  0  0  0  0  0  0  0  0  0  0
    2.7373    1.0653   -0.9092 H   0  0  0  0  0  0  0  0  0  0  0  0
    3.8267    0.0241    0.0005 H   0  0  0  0  0  0  0  0  0  0  0  0
  1  2  1  0  0  0  0
  1  8  1  0  0  0  0
  2  3  2  0  0  0  0
  2  4  1  0  0  0  0
  3  5  1  0  0  0  0
  3  9  1  0  0  0  0
  4  6  2  0  0  0  0
  4 10  1  0  0  0  0
  5  7  2  0  0  0  0
  5 11  1  0  0  0  0
  6  7  1  0  0  0  0
  6 12  1  0  0  0  0
  7 13  1  0  0  0  0
  8 14  1  0  0  0  0
  8 15  1  0  0  0  0
  8 16  1  0  0  0  0
M  END
